Circuit: * /Users/Matheus/ProjetoDeDiplomacao/AudioCircuitDigitalModeling/implementation/ltspice/MxrDistortionPlus.asc

Error on line 560 : .tr
	 Unknown control card
Direct Newton iteration for .op point succeeded.

Date: Sun Oct 22 19:59:00 2017
Total elapsed time: 17.512 seconds.

tnom = 27
temp = 27
method = modified trap
totiter = 2034910
traniter = 2034904
tranpoints = 767143
accept = 682084
rejected = 85059
matrix size = 16
fillins = 3
solver = Normal
Matrix Compiler1: 686 object code size  0.3/0.4/[0.2]
Matrix Compiler2: off

